<?xml version="1.0" encoding="UTF-8"?>
<net version="1.1" junctionCornerDetail="5" limitTurnSpeed="5.50" xmlns:xsi="http://www.w3.org/2001/XMLSchema-instance" xsi:noNamespaceSchemaLocation="http://sumo.dlr.de/xsd/net_file.xsd">
    <junction id="0" type="traffic_light" x="0.00" y="0.00" incLanes="" intLanes="" shape="10.00,10.00 10.00,-10.00 -10.00,-10.00 -10.00,10.00"/>
    <edge id="north" from="0" to="1" priority="78" type="highway.primary">
        <lane id="north_0" index="0" speed="13.89" length="100.00"/>
    </edge>
    <edge id="south" from="0" to="1" priority="76" type="highway.primary">
        <lane id="south_0" index="0" speed="13.89" length="100.00"/>
    </edge>
    <edge id="east" from="0" to="1" priority="77" type="highway.primary">
        <lane id="east_0" index="0" speed="13.89" length="100.00"/>
    </edge>
    <edge id="west" from="0" to="1" priority="75" type="highway.primary">
        <lane id="west_0" index="0" speed="13.89" length="100.00"/>
    </edge>
    <!-- Add more junctions and edges as needed -->
</net>
