<?xml version="1.0" encoding="UTF-8"?>
<routes xmlns:xsi="http://www.w3.org/2001/XMLSchema-instance" xsi:noNamespaceSchemaLocation="http://sumo.dlr.de/xsd/routes_file.xsd">
    <vType id="car" length="5" maxSpeed="13.89" accel="2.6" decel="4.5" sigma="0.5" />
    <route id="route0" edges="1i 1o" />
    <route id="route1" edges="3i 4o" />
    <vehicle id="0" type="car" route="route0" depart="0" departLane="0" departSpeed="10" />
    <vehicle id="1" type="car" route="route1" depart="2" departLane="0" departSpeed="10" />
</routes>