<?xml version="1.0" encoding="UTF-8"?>
<routes>
    <vType id="car" accel="2.6" decel="4.5" sigma="0.5" length="5" minGap="2.5" maxSpeed="33.33"/>
    <route id="route_0" edges="north south"/>
    <route id="route_1" edges="east west"/>
    <vehicle id="veh0" type="car" route="route_0" depart="0"/>
    <vehicle id="veh1" type="car" route="route_1" depart="5"/>
    <!-- Add more vehicles as needed -->
</routes>
