<?xml version="1.0" encoding="UTF-8"?>
<additional>
    <tlLogic id="0" type="static" programID="0" offset="0">
        <phase duration="30" state="GGrr"/>
        <phase duration="5" state="yyrr"/>
        <phase duration="30" state="rrGG"/>
        <phase duration="5" state="rryy"/>
    </tlLogic>
</additional>
