<?xml version="1.0" encoding="UTF-8"?>
<routes>
    <vType id="car" accel="2.6" decel="4.5" sigma="0.5" length="5" minGap="2.5" maxSpeed="33.33"/>
    <route id="main_route" edges="mainroad"/>

    <vehicle id="lead_vehicle" type="car" route="main_route" depart="0"/>
    <vehicle id="following_vehicle" type="car" route="main_route" depart="10" color="1,0,0"/>
    <!-- Additional vehicles can be added with different depart times or speeds -->
</routes>
