<?xml version="1.0" encoding="UTF-8"?>
<additional>
    <!-- Additional elements like detectors could be added here if needed -->
</additional>
