<?xml version="1.0" encoding="UTF-8"?>
<net version="1.1" junctionCornerDetail="5" limitTurnSpeed="5.50" xmlns:xsi="http://www.w3.org/2001/XMLSchema-instance" xsi:noNamespaceSchemaLocation="http://sumo.dlr.de/xsd/net_file.xsd">
    <junction id="begin" type="dead_end" x="-500.0" y="0.0" incLanes="" intLanes="" shape="-500.0,-20.0 -500.0,20.0"/>
    <junction id="end" type="dead_end" x="500.0" y="0.0" incLanes="" intLanes="" shape="500.0,-20.0 500.0,20.0"/>
    <edge id="mainroad" from="begin" to="end" priority="78" type="highway.primary">
        <lane id="mainroad_0" index="0" speed="13.89" length="1000.0" shape="-500.0,0.0 500.0,0.0"/>
    </edge>
</net>

